  20
i = 0; X = 6.3839998245 Y =  5.5289998055 Z = 30.0
Mg 0.000000000         0.000000000         0.000000000
Mg 3.191999912         0.000000000         0.000000000
Mg 1.595999956         2.764349956         0.000000000
Mg 4.787999868         2.764349956         0.000000000
Ne 0.000000000         0.000000000        16.650080343
Ne 3.191999912         0.000000000        16.650080343
Ne 1.595999956         2.764349956        16.650080343
Ne 4.787999868         2.764349956        16.650080343
O 3.895276129         0.979102916         5.540073039
O 2.140915100         4.942786720         6.956241177
O 2.070161376         1.108019030         8.912410540
O 3.752089084         2.771489745         7.700264079
H 3.211131878         0.362404225         5.923249257
H 3.498558095         1.335030291         4.726991839
H 2.004050709         0.056285714         7.746947591
H 1.254337932         4.657316439         6.676597334
H 1.250430793         1.556209186         9.180713299
H 2.694501063         1.822726648         8.550826141
H 3.880685622         2.236978420         6.875153176
H 3.231271831         3.569816682         7.430809494
